.subckt sky130_fd_pr__pfet_01v8 d g s b
.ends

.subckt sky130_fd_pr__pfet_01v8_hvt d g s b
.ends

.subckt sky130_fd_pr__nfet_01v8 d g s b
.ends

.subckt sky130_fd_pr__nfet_01v8_hvt d g s b
.ends

.subckt sky130_fd_pr__diode_pw2nd_05v5 a b
.ends
